# generated using pymatgen
data_Mg2CuN2
_symmetry_space_group_name_H-M   'P 1'
_cell_length_a   10.59139800
_cell_length_b   4.06815000
_cell_length_c   6.92098764
_cell_angle_alpha   90.00000000
_cell_angle_beta   121.35854395
_cell_angle_gamma   90.00000000
_symmetry_Int_Tables_number   1
_chemical_formula_structural   Mg2CuN2
_chemical_formula_sum   'Mg8 Cu4 N8'
_cell_volume   254.64745695
_cell_formula_units_Z   4
loop_
 _symmetry_equiv_pos_site_id
 _symmetry_equiv_pos_as_xyz
  1  'x, y, z'
loop_
 _atom_type_symbol
 _atom_type_oxidation_number
  Mg2+  2.0
  Cu2+  2.0
  N3-  -3.0
loop_
 _atom_site_type_symbol
 _atom_site_label
 _atom_site_symmetry_multiplicity
 _atom_site_fract_x
 _atom_site_fract_y
 _atom_site_fract_z
 _atom_site_occupancy
  Mg2+  Mg0  1  0.67107400  0.00000000  0.03439500  1
  Mg2+  Mg1  1  0.32892600  0.00000000  0.96560500  1
  Mg2+  Mg2  1  0.03751700  0.00000000  0.23393900  1
  Mg2+  Mg3  1  0.96248300  0.00000000  0.76606100  1
  Mg2+  Mg4  1  0.17107400  0.50000000  0.03439500  1
  Mg2+  Mg5  1  0.82892600  0.50000000  0.96560500  1
  Mg2+  Mg6  1  0.53751700  0.50000000  0.23393900  1
  Mg2+  Mg7  1  0.46248300  0.50000000  0.76606100  1
  Cu2+  Cu8  1  0.85596200  0.50000000  0.39111900  1
  Cu2+  Cu9  1  0.14403800  0.50000000  0.60888100  1
  Cu2+  Cu10  1  0.35596200  0.00000000  0.39111900  1
  Cu2+  Cu11  1  0.64403800  0.00000000  0.60888100  1
  N3-  N12  1  0.67492000  0.50000000  0.09802700  1
  N3-  N13  1  0.32508000  0.50000000  0.90197300  1
  N3-  N14  1  0.97860800  0.50000000  0.70137000  1
  N3-  N15  1  0.02139200  0.50000000  0.29863000  1
  N3-  N16  1  0.17492000  0.00000000  0.09802700  1
  N3-  N17  1  0.82508000  0.00000000  0.90197300  1
  N3-  N18  1  0.47860800  0.00000000  0.70137000  1
  N3-  N19  1  0.52139200  0.00000000  0.29863000  1
